  
       XFOIL         Version 6.99
  
 Calculated polar for:                                                 
  
 1 1 Reynolds number fixed          Mach number fixed         
  
 xtrf =   1.000 (top)        1.000 (bottom)  
 Mach =   0.000     Re =     0.500 e 6     Ncrit =   9.000
  
   alpha    CL        CD       CDp       CM     Top_Xtr  Bot_Xtr
  ------ -------- --------- --------- -------- -------- --------
  -5.000  -0.4181   0.01181   0.00549  -0.0295   0.9801   0.0067
  -4.000  -0.2835   0.00962   0.00322  -0.0349   0.9583   0.0299
  -3.000  -0.1773   0.00666   0.00199  -0.0357   0.9195   0.4698
  -2.000  -0.0752   0.00611   0.00179  -0.0333   0.8762   0.6589
  -1.000   0.0307   0.00603   0.00176  -0.0315   0.8370   0.7404
   0.000   0.1383   0.00605   0.00168  -0.0303   0.7958   0.7940
   1.000   0.2453   0.00602   0.00171  -0.0290   0.7482   0.8442
   2.000   0.3498   0.00593   0.00173  -0.0270   0.6967   0.9044
   3.000   0.4812   0.00619   0.00183  -0.0310   0.5935   0.9894
   4.000   0.5722   0.00873   0.00268  -0.0287   0.2211   1.0000
   5.000   0.6634   0.01114   0.00399  -0.0262   0.0223   1.0000
   6.000   0.7583   0.01339   0.00641  -0.0233   0.0055   1.0000
   7.000   0.8399   0.01758   0.01108  -0.0177   0.0068   1.0000
