  
       XFOIL         Version 6.99
  
 Calculated polar for:                                                 
  
 1 1 Reynolds number fixed          Mach number fixed         
  
 xtrf =   1.000 (top)        1.000 (bottom)  
 Mach =   0.000     Re =     1.000 e 6     Ncrit =   9.000
  
   alpha    CL        CD       CDp       CM     Top_Xtr  Bot_Xtr
  ------ -------- --------- --------- -------- -------- --------
  -5.000  -0.3935   0.00940   0.00404  -0.0352   0.9618   0.0067
  -4.000  -0.2875   0.00774   0.00223  -0.0339   0.9073   0.0506
  -3.000  -0.1840   0.00657   0.00149  -0.0326   0.8608   0.2157
  -2.000  -0.0803   0.00514   0.00099  -0.0317   0.8233   0.5447
  -1.000   0.0287   0.00487   0.00087  -0.0310   0.7818   0.6674
   0.000   0.1390   0.00483   0.00084  -0.0304   0.7378   0.7318
   1.000   0.2497   0.00488   0.00088  -0.0300   0.6900   0.7799
   2.000   0.3585   0.00504   0.00102  -0.0292   0.6192   0.8271
   3.000   0.4611   0.00562   0.00133  -0.0273   0.4653   0.8917
   4.000   0.5806   0.00703   0.00206  -0.0300   0.2385   1.0000
   5.000   0.6813   0.00841   0.00290  -0.0286   0.1099   1.0000
   6.000   0.7816   0.00995   0.00413  -0.0271   0.0350   1.0000
   7.000   0.8816   0.01156   0.00577  -0.0255   0.0144   1.0000
   8.000   0.9761   0.01383   0.00817  -0.0232   0.0049   1.0000
   9.000   1.0673   0.01630   0.01091  -0.0206   0.0033   1.0000
  10.000   1.1356   0.02150   0.01679  -0.0150   0.0023   1.0000
  11.000   1.1732   0.02905   0.02523  -0.0067   0.0020   1.0000
  12.000   1.1351   0.03966   0.03672   0.0053   0.0020   1.0000
  13.000   1.0552   0.06179   0.05965  -0.0014   0.0020   1.0000
  14.000   0.9701   0.10193   0.10030  -0.0273   0.0021   1.0000
