  
       XFOIL         Version 6.99
  
 Calculated polar for: NACA 3412                                       
  
 1 1 Reynolds number fixed          Mach number fixed         
  
 xtrf =   1.000 (top)        1.000 (bottom)  
 Mach =   0.000     Re =     0.813 e 6     Ncrit =   9.000
  
   alpha    CL        CD       CDp       CM     Top_Xtr  Bot_Xtr
  ------ -------- --------- --------- -------- -------- --------
  -5.000  -0.1907   0.00904   0.00327  -0.0814   0.8976   0.0590
  -4.000  -0.0809   0.00831   0.00250  -0.0807   0.8619   0.0872
  -3.000   0.0293   0.00770   0.00197  -0.0801   0.8185   0.1423
  -2.000   0.1395   0.00725   0.00163  -0.0795   0.7682   0.2304
  -1.000   0.2489   0.00687   0.00145  -0.0789   0.7120   0.3660
   1.000   0.4546   0.00587   0.00173  -0.0742   0.5958   0.9498
   2.000   0.6019   0.00635   0.00192  -0.0818   0.5415   1.0000
   3.000   0.7023   0.00681   0.00217  -0.0794   0.4988   1.0000
   4.000   0.8052   0.00735   0.00254  -0.0776   0.4562   1.0000
   5.000   0.9092   0.00799   0.00301  -0.0761   0.4059   1.0000
   6.000   1.0111   0.00887   0.00367  -0.0743   0.3347   1.0000
   7.000   1.1046   0.01045   0.00476  -0.0715   0.2312   1.0000
   8.000   1.1886   0.01270   0.00642  -0.0674   0.1222   1.0000
   9.000   1.2695   0.01489   0.00829  -0.0628   0.0650   1.0000
  10.000   1.3439   0.01701   0.01037  -0.0573   0.0427   1.0000
  11.000   1.4016   0.01960   0.01301  -0.0494   0.0321   1.0000
  12.000   1.4528   0.02283   0.01641  -0.0421   0.0266   1.0000
  13.000   1.4898   0.02751   0.02129  -0.0352   0.0226   1.0000
  14.000   1.5252   0.03307   0.02714  -0.0303   0.0203   1.0000
  15.000   1.5301   0.04252   0.03691  -0.0267   0.0184   1.0000
