  
       XFOIL         Version 6.99
  
 Calculated polar for: NACA 4810                                       
  
 1 1 Reynolds number fixed          Mach number fixed         
  
 xtrf =   1.000 (top)        1.000 (bottom)  
 Mach =   0.000     Re =     0.813 e 6     Ncrit =   9.000
  
   alpha    CL        CD       CDp       CM     Top_Xtr  Bot_Xtr
  ------ -------- --------- --------- -------- -------- --------
  -5.000  -0.1496   0.01714   0.01171  -0.1351   0.9863   0.0481
  -4.000  -0.0177   0.01661   0.01135  -0.1404   0.9784   0.0959
  -3.000   0.1988   0.01570   0.01094  -0.1630   0.9627   0.2433
  -2.000   0.3321   0.01473   0.01036  -0.1679   0.9521   0.3741
  -1.000   0.4713   0.01398   0.00997  -0.1738   0.9429   0.4952
   0.000   0.6459   0.01222   0.00853  -0.1865   0.9372   0.6031
   1.000   0.8024   0.00958   0.00618  -0.1947   0.9241   0.6793
   2.000   0.9267   0.00712   0.00310  -0.1947   0.7222   0.7298
   3.000   0.9766   0.00975   0.00461  -0.1811   0.4715   0.7639
   4.000   1.0629   0.01201   0.00580  -0.1760   0.2402   0.7893
   5.000   1.1546   0.01421   0.00721  -0.1723   0.0845   0.8094
   6.000   1.2464   0.01590   0.00872  -0.1682   0.0406   0.8266
   7.000   1.3345   0.01766   0.01052  -0.1634   0.0271   0.8427
   8.000   1.4167   0.01965   0.01269  -0.1576   0.0210   0.8578
   9.000   1.4894   0.02212   0.01537  -0.1503   0.0172   0.8723
  10.000   1.5553   0.02480   0.01829  -0.1421   0.0147   0.8870
  11.000   1.6045   0.02857   0.02247  -0.1314   0.0130   0.9039
  12.000   1.6459   0.03217   0.02648  -0.1201   0.0117   1.0000
  13.000   1.6549   0.03940   0.03419  -0.1060   0.0107   1.0000
  14.000   1.6644   0.04671   0.04203  -0.0945   0.0101   1.0000
  15.000   1.6488   0.05765   0.05354  -0.0851   0.0096   1.0000
