  
       XFOIL         Version 6.99
  
 Calculated polar for: NACA 2412                                       
  
 1 1 Reynolds number fixed          Mach number fixed         
  
 xtrf =   1.000 (top)        1.000 (bottom)  
 Mach =   0.000     Re =     0.813 e 6     Ncrit =   9.000
  
   alpha    CL        CD       CDp       CM     Top_Xtr  Bot_Xtr
  ------ -------- --------- --------- -------- -------- --------
  -5.000  -0.3017   0.00897   0.00324  -0.0576   0.9348   0.0781
  -4.000  -0.1941   0.00812   0.00250  -0.0564   0.9004   0.1257
  -3.000  -0.0857   0.00740   0.00195  -0.0553   0.8574   0.2077
  -2.000   0.0231   0.00682   0.00159  -0.0545   0.8043   0.3243
  -1.000   0.1302   0.00619   0.00138  -0.0534   0.7428   0.5198
   0.000   0.2356   0.00576   0.00139  -0.0517   0.6759   0.7334
   1.000   0.3373   0.00569   0.00158  -0.0486   0.6088   0.9033
   2.000   0.4583   0.00615   0.00186  -0.0498   0.5446   0.9799
   3.000   0.6108   0.00673   0.00216  -0.0587   0.4797   0.9989
   4.000   0.7119   0.00728   0.00247  -0.0566   0.4183   1.0000
   5.000   0.8073   0.00805   0.00294  -0.0534   0.3403   1.0000
   6.000   0.9006   0.00931   0.00375  -0.0501   0.2382   1.0000
   7.000   0.9921   0.01104   0.00497  -0.0468   0.1354   1.0000
   8.000   1.0829   0.01285   0.00644  -0.0436   0.0735   1.0000
   9.000   1.1721   0.01466   0.00813  -0.0403   0.0471   1.0000
  10.000   1.2551   0.01668   0.01016  -0.0361   0.0347   1.0000
  11.000   1.3288   0.01885   0.01247  -0.0307   0.0284   1.0000
  12.000   1.3831   0.02167   0.01545  -0.0229   0.0241   1.0000
  13.000   1.4290   0.02540   0.01939  -0.0161   0.0212   1.0000
  14.000   1.4602   0.03094   0.02525  -0.0104   0.0192   1.0000
  15.000   1.4754   0.03915   0.03374  -0.0073   0.0175   1.0000
