  
       XFOIL         Version 6.99
  
 Calculated polar for: NACA 4310                                       
  
 1 1 Reynolds number fixed          Mach number fixed         
  
 xtrf =   1.000 (top)        1.000 (bottom)  
 Mach =   0.000     Re =     0.813 e 6     Ncrit =   9.000
  
   alpha    CL        CD       CDp       CM     Top_Xtr  Bot_Xtr
  ------ -------- --------- --------- -------- -------- --------
  -5.000  -0.1056   0.01056   0.00524  -0.0904   0.8962   0.0225
  -4.000   0.0022   0.00924   0.00362  -0.0892   0.8512   0.0282
  -3.000   0.1113   0.00843   0.00253  -0.0882   0.7948   0.0375
  -2.000   0.2203   0.00796   0.00181  -0.0873   0.7249   0.0579
  -1.000   0.3291   0.00782   0.00149  -0.0865   0.6433   0.1054
   0.000   0.4371   0.00783   0.00145  -0.0859   0.5537   0.2241
   1.000   0.5476   0.00643   0.00169  -0.0861   0.4736   1.0000
   2.000   0.6541   0.00705   0.00192  -0.0851   0.4236   1.0000
   3.000   0.7625   0.00758   0.00226  -0.0845   0.3956   1.0000
   4.000   0.8708   0.00814   0.00272  -0.0840   0.3766   1.0000
   5.000   0.9789   0.00870   0.00328  -0.0836   0.3606   1.0000
   6.000   1.0861   0.00927   0.00384  -0.0831   0.3356   1.0000
   7.000   1.1917   0.00991   0.00450  -0.0824   0.3038   1.0000
   8.000   1.2907   0.01110   0.00547  -0.0809   0.2298   1.0000
   9.000   1.3581   0.01505   0.00839  -0.0750   0.0623   1.0000
  10.000   1.4299   0.01791   0.01113  -0.0695   0.0270   1.0000
  11.000   1.4897   0.02061   0.01401  -0.0622   0.0194   1.0000
  12.000   1.5283   0.02448   0.01815  -0.0533   0.0155   1.0000
  13.000   1.5423   0.03110   0.02509  -0.0454   0.0131   1.0000
  14.000   1.5549   0.03967   0.03407  -0.0417   0.0118   1.0000
  15.000   1.5456   0.05250   0.04728  -0.0415   0.0108   1.0000
