  
       XFOIL         Version 6.99
  
 Calculated polar for:                                                 
  
 1 1 Reynolds number fixed          Mach number fixed         
  
 xtrf =   1.000 (top)        1.000 (bottom)  
 Mach =   0.000     Re =     0.631 e 6     Ncrit =   9.000
  
   alpha    CL        CD       CDp       CM     Top_Xtr  Bot_Xtr
  ------ -------- --------- --------- -------- -------- --------
  -5.000  -0.4000   0.01084   0.00479  -0.0329   0.9765   0.0055
  -4.000  -0.2775   0.00905   0.00286  -0.0356   0.9447   0.0177
  -3.000  -0.1794   0.00671   0.00172  -0.0341   0.8971   0.3463
  -2.000  -0.0784   0.00562   0.00145  -0.0322   0.8543   0.6307
  -1.000   0.0297   0.00552   0.00137  -0.0311   0.8149   0.7152
   0.000   0.1392   0.00550   0.00134  -0.0304   0.7747   0.7692
   1.000   0.2486   0.00549   0.00139  -0.0298   0.7313   0.8189
   2.000   0.3553   0.00552   0.00143  -0.0284   0.6716   0.8713
   3.000   0.4661   0.00583   0.00159  -0.0279   0.5560   0.9672
   4.000   0.5721   0.00845   0.00252  -0.0290   0.1760   1.0000
   5.000   0.6644   0.01079   0.00388  -0.0265   0.0076   1.0000
   6.000   0.7616   0.01278   0.00618  -0.0239   0.0048   1.0000
   7.000   0.8421   0.02048   0.01482  -0.0158   0.0148   1.0000
