  
       XFOIL         Version 6.99
  
 Calculated polar for: NACA 3310                                       
  
 1 1 Reynolds number fixed          Mach number fixed         
  
 xtrf =   1.000 (top)        1.000 (bottom)  
 Mach =   0.000     Re =     0.813 e 6     Ncrit =   9.000
  
   alpha    CL        CD       CDp       CM     Top_Xtr  Bot_Xtr
  ------ -------- --------- --------- -------- -------- --------
  -5.000  -0.2089   0.00981   0.00430  -0.0706   0.9365   0.0274
  -4.000  -0.1015   0.00875   0.00310  -0.0692   0.8989   0.0364
  -3.000   0.0068   0.00798   0.00218  -0.0679   0.8482   0.0546
  -2.000   0.1158   0.00752   0.00161  -0.0670   0.7842   0.0980
  -1.000   0.2243   0.00719   0.00134  -0.0661   0.7062   0.2072
   0.000   0.3224   0.00565   0.00132  -0.0638   0.6193   0.8095
   1.000   0.4586   0.00593   0.00148  -0.0685   0.5243   1.0000
   2.000   0.5601   0.00651   0.00166  -0.0664   0.4540   1.0000
   3.000   0.6650   0.00706   0.00198  -0.0650   0.4101   1.0000
   4.000   0.7720   0.00760   0.00240  -0.0641   0.3806   1.0000
   5.000   0.8791   0.00820   0.00291  -0.0634   0.3472   1.0000
   6.000   0.9862   0.00881   0.00349  -0.0627   0.3092   1.0000
   7.000   1.0878   0.00996   0.00434  -0.0614   0.2275   1.0000
   8.000   1.1722   0.01287   0.00643  -0.0579   0.0765   1.0000
   9.000   1.2588   0.01524   0.00859  -0.0545   0.0329   1.0000
  10.000   1.3421   0.01751   0.01098  -0.0507   0.0224   1.0000
  11.000   1.4133   0.02018   0.01383  -0.0454   0.0173   1.0000
  12.000   1.4534   0.02391   0.01785  -0.0360   0.0147   1.0000
  13.000   1.4846   0.02884   0.02307  -0.0287   0.0128   1.0000
  14.000   1.4880   0.03779   0.03244  -0.0240   0.0116   1.0000
  15.000   1.4872   0.04947   0.04455  -0.0240   0.0107   1.0000
