  
       XFOIL         Version 6.99
  
 Calculated polar for: NACA 4210                                       
  
 1 1 Reynolds number fixed          Mach number fixed         
  
 xtrf =   1.000 (top)        1.000 (bottom)  
 Mach =   0.000     Re =     0.813 e 6     Ncrit =   9.000
  
   alpha    CL        CD       CDp       CM     Top_Xtr  Bot_Xtr
  ------ -------- --------- --------- -------- -------- --------
  -5.000  -0.1045   0.03734   0.03471  -0.0763   0.8834   0.0190
  -4.000  -0.0100   0.02213   0.01820  -0.0758   0.8211   0.0209
  -3.000   0.0893   0.01031   0.00452  -0.0722   0.7477   0.0216
  -2.000   0.1952   0.00933   0.00301  -0.0706   0.6470   0.0271
  -1.000   0.3015   0.00917   0.00229  -0.0694   0.5202   0.0365
   0.000   0.4073   0.00948   0.00198  -0.0683   0.3772   0.0558
   1.000   0.5151   0.00984   0.00202  -0.0677   0.2975   0.1035
   2.000   0.6269   0.00811   0.00236  -0.0684   0.2740   1.0000
   3.000   0.7340   0.00864   0.00271  -0.0676   0.2634   1.0000
   4.000   0.8402   0.00936   0.00327  -0.0667   0.2537   1.0000
   5.000   0.9479   0.00992   0.00384  -0.0662   0.2487   1.0000
   6.000   1.0535   0.01066   0.00460  -0.0656   0.2424   1.0000
   7.000   1.1574   0.01157   0.00559  -0.0647   0.2365   1.0000
   8.000   1.2614   0.01232   0.00649  -0.0640   0.2300   1.0000
   9.000   1.3649   0.01283   0.00709  -0.0634   0.2125   1.0000
  10.000   1.4677   0.01338   0.00780  -0.0628   0.1903   1.0000
  11.000   1.5277   0.01756   0.01114  -0.0565   0.0579   1.0000
  12.000   1.5699   0.02176   0.01525  -0.0475   0.0201   1.0000
  13.000   1.6011   0.02623   0.01998  -0.0388   0.0143   1.0000
  14.000   1.6134   0.03327   0.02743  -0.0324   0.0116   1.0000
  15.000   1.5820   0.04784   0.04251  -0.0317   0.0102   1.0000
