  
       XFOIL         Version 6.99
  
 Calculated polar for: NACA 2412                                       
  
 1 1 Reynolds number fixed          Mach number fixed         
  
 xtrf =   1.000 (top)        1.000 (bottom)  
 Mach =   0.000     Re =     0.631 e 6     Ncrit =   9.000
  
   alpha    CL        CD       CDp       CM     Top_Xtr  Bot_Xtr
  ------ -------- --------- --------- -------- -------- --------
  -5.000  -0.2994   0.00978   0.00377  -0.0587   0.9486   0.0847
  -4.000  -0.1905   0.00874   0.00291  -0.0577   0.9184   0.1394
  -3.000  -0.0830   0.00789   0.00228  -0.0564   0.8790   0.2315
  -2.000   0.0246   0.00718   0.00186  -0.0552   0.8294   0.3636
  -1.000   0.1299   0.00639   0.00164  -0.0536   0.7705   0.5898
   0.000   0.2326   0.00597   0.00166  -0.0509   0.7046   0.7989
   1.000   0.3361   0.00611   0.00188  -0.0478   0.6366   0.9422
   2.000   0.4788   0.00667   0.00213  -0.0540   0.5676   0.9886
   3.000   0.6130   0.00720   0.00237  -0.0591   0.5030   1.0000
   4.000   0.7090   0.00775   0.00270  -0.0559   0.4428   1.0000
   5.000   0.8046   0.00851   0.00320  -0.0526   0.3706   1.0000
   6.000   0.8986   0.00972   0.00400  -0.0494   0.2712   1.0000
   7.000   0.9888   0.01153   0.00526  -0.0460   0.1587   1.0000
   8.000   1.0768   0.01356   0.00690  -0.0425   0.0840   1.0000
   9.000   1.1629   0.01557   0.00879  -0.0387   0.0529   1.0000
  10.000   1.2417   0.01782   0.01108  -0.0339   0.0392   1.0000
  11.000   1.3066   0.02030   0.01370  -0.0272   0.0317   1.0000
  12.000   1.3545   0.02371   0.01732  -0.0193   0.0272   1.0000
  13.000   1.3877   0.02870   0.02256  -0.0123   0.0240   1.0000
  14.000   1.4166   0.03504   0.02920  -0.0080   0.0217   1.0000
  15.000   1.4189   0.04522   0.03975  -0.0060   0.0201   1.0000
