  
       XFOIL         Version 6.99
  
 Calculated polar for: NACA 1710                                       
  
 1 1 Reynolds number fixed          Mach number fixed         
  
 xtrf =   1.000 (top)        1.000 (bottom)  
 Mach =   0.000     Re =     0.813 e 6     Ncrit =   9.000
  
   alpha    CL        CD       CDp       CM     Top_Xtr  Bot_Xtr
  ------ -------- --------- --------- -------- -------- --------
  -5.000  -0.4353   0.00936   0.00354  -0.0361   0.9862   0.0719
  -4.000  -0.3015   0.00810   0.00273  -0.0415   0.9784   0.1714
  -3.000  -0.1614   0.00688   0.00211  -0.0482   0.9717   0.3327
  -2.000  -0.0418   0.00595   0.00169  -0.0497   0.9548   0.4841
  -1.000   0.0683   0.00527   0.00141  -0.0486   0.9270   0.6163
   0.000   0.1763   0.00492   0.00128  -0.0468   0.8781   0.7215
   1.000   0.2809   0.00499   0.00123  -0.0442   0.7578   0.8029
   2.000   0.3768   0.00564   0.00150  -0.0400   0.5748   0.9062
   3.000   0.5027   0.00666   0.00192  -0.0430   0.3900   0.9990
   4.000   0.6014   0.00801   0.00253  -0.0408   0.2178   1.0000
   5.000   0.7013   0.00955   0.00345  -0.0389   0.0919   1.0000
   6.000   0.8032   0.01096   0.00462  -0.0373   0.0451   1.0000
   7.000   0.9040   0.01251   0.00616  -0.0354   0.0298   1.0000
   8.000   1.0023   0.01424   0.00800  -0.0332   0.0231   1.0000
   9.000   1.0951   0.01644   0.01035  -0.0303   0.0187   1.0000
  10.000   1.1801   0.01922   0.01333  -0.0265   0.0158   1.0000
  11.000   1.2603   0.02207   0.01652  -0.0223   0.0139   1.0000
  12.000   1.3174   0.02642   0.02119  -0.0154   0.0124   1.0000
  13.000   1.3456   0.03159   0.02689  -0.0056   0.0116   1.0000
  14.000   1.3515   0.03923   0.03509   0.0016   0.0110   1.0000
  15.000   1.3370   0.05190   0.04830   0.0008   0.0104   1.0000
