  
       XFOIL         Version 6.99
  
 Calculated polar for: NACA 3810                                       
  
 1 1 Reynolds number fixed          Mach number fixed         
  
 xtrf =   1.000 (top)        1.000 (bottom)  
 Mach =   0.000     Re =     0.813 e 6     Ncrit =   9.000
  
   alpha    CL        CD       CDp       CM     Top_Xtr  Bot_Xtr
  ------ -------- --------- --------- -------- -------- --------
  -5.000  -0.2153   0.01363   0.00805  -0.1093   0.9838   0.0583
  -4.000  -0.0519   0.01249   0.00725  -0.1210   0.9740   0.1413
  -3.000   0.0797   0.01157   0.00679  -0.1259   0.9654   0.2727
  -2.000   0.2419   0.01072   0.00641  -0.1371   0.9613   0.4231
  -1.000   0.3721   0.00988   0.00594  -0.1409   0.9509   0.5430
   0.000   0.5153   0.00869   0.00509  -0.1469   0.9400   0.6436
   1.000   0.6650   0.00661   0.00329  -0.1534   0.9223   0.7163
   3.000   0.8594   0.00886   0.00347  -0.1453   0.4026   0.7944
   4.000   0.9530   0.01086   0.00453  -0.1418   0.1930   0.8190
   5.000   1.0477   0.01269   0.00579  -0.1385   0.0723   0.8402
   6.000   1.1438   0.01417   0.00716  -0.1353   0.0383   0.8601
   7.000   1.2353   0.01584   0.00893  -0.1312   0.0263   0.8799
   8.000   1.3219   0.01769   0.01097  -0.1263   0.0207   0.9026
   9.000   1.3919   0.01992   0.01352  -0.1182   0.0169   1.0000
  10.000   1.4661   0.02226   0.01609  -0.1116   0.0148   1.0000
  11.000   1.5145   0.02636   0.02050  -0.1009   0.0131   1.0000
  12.000   1.5624   0.03000   0.02452  -0.0910   0.0118   1.0000
  13.000   1.5918   0.03488   0.02973  -0.0798   0.0109   1.0000
  14.000   1.5759   0.04433   0.03979  -0.0662   0.0102   1.0000
  15.000   1.5575   0.05576   0.05184  -0.0590   0.0098   1.0000
