  
       XFOIL         Version 6.99
  
 Calculated polar for: NACA 3710                                       
  
 1 1 Reynolds number fixed          Mach number fixed         
  
 xtrf =   1.000 (top)        1.000 (bottom)  
 Mach =   0.000     Re =     0.813 e 6     Ncrit =   9.000
  
   alpha    CL        CD       CDp       CM     Top_Xtr  Bot_Xtr
  ------ -------- --------- --------- -------- -------- --------
  -5.000  -0.0936   0.00990   0.00442  -0.1269   0.9593   0.0728
  -4.000   0.0163   0.00913   0.00393  -0.1271   0.9514   0.1483
  -3.000   0.1542   0.00786   0.00309  -0.1329   0.9465   0.2802
  -2.000   0.2719   0.00711   0.00272  -0.1342   0.9369   0.4099
  -1.000   0.3926   0.00640   0.00235  -0.1357   0.9270   0.5297
   0.000   0.5074   0.00587   0.00211  -0.1356   0.9108   0.6298
   1.000   0.6204   0.00552   0.00192  -0.1349   0.8839   0.7001
   2.000   0.7252   0.00556   0.00176  -0.1322   0.7705   0.7466
   4.000   0.8903   0.00907   0.00347  -0.1199   0.2953   0.8573
   5.000   0.9768   0.01087   0.00459  -0.1151   0.1209   1.0000
   6.000   1.0721   0.01266   0.00597  -0.1123   0.0502   1.0000
   7.000   1.1669   0.01430   0.00756  -0.1092   0.0313   1.0000
   8.000   1.2568   0.01616   0.00947  -0.1053   0.0230   1.0000
   9.000   1.3399   0.01832   0.01177  -0.1003   0.0186   1.0000
  10.000   1.4075   0.02104   0.01474  -0.0927   0.0157   1.0000
  11.000   1.4547   0.02503   0.01897  -0.0824   0.0136   1.0000
  12.000   1.5081   0.02827   0.02256  -0.0740   0.0123   1.0000
  13.000   1.5434   0.03288   0.02749  -0.0645   0.0113   1.0000
  14.000   1.5364   0.04179   0.03694  -0.0531   0.0105   1.0000
  15.000   1.5304   0.05183   0.04756  -0.0465   0.0100   1.0000
