  
       XFOIL         Version 6.99
  
 Calculated polar for: NACA 2810                                       
  
 1 1 Reynolds number fixed          Mach number fixed         
  
 xtrf =   1.000 (top)        1.000 (bottom)  
 Mach =   0.000     Re =     0.813 e 6     Ncrit =   9.000
  
   alpha    CL        CD       CDp       CM     Top_Xtr  Bot_Xtr
  ------ -------- --------- --------- -------- -------- --------
  -5.000  -0.3228   0.01094   0.00525  -0.0745   0.9860   0.0672
  -4.000  -0.1865   0.00996   0.00462  -0.0805   0.9795   0.1543
  -3.000  -0.0414   0.00897   0.00419  -0.0883   0.9742   0.3055
  -2.000   0.0943   0.00812   0.00384  -0.0937   0.9656   0.4535
  -1.000   0.2521   0.00710   0.00325  -0.1034   0.9594   0.5889
   0.000   0.3926   0.00595   0.00247  -0.1087   0.9455   0.6887
   1.000   0.5060   0.00513   0.00185  -0.1075   0.8895   0.7563
   2.000   0.6027   0.00666   0.00208  -0.1032   0.5736   0.7999
   3.000   0.6990   0.00804   0.00271  -0.0998   0.3765   0.8322
   4.000   0.7960   0.00963   0.00355  -0.0970   0.1874   0.8606
   5.000   0.8930   0.01115   0.00460  -0.0941   0.0749   0.8900
   6.000   0.9853   0.01238   0.00583  -0.0899   0.0394   0.9420
   7.000   1.0867   0.01381   0.00731  -0.0881   0.0277   1.0000
   8.000   1.1824   0.01577   0.00934  -0.0854   0.0211   1.0000
   9.000   1.2720   0.01798   0.01174  -0.0815   0.0176   1.0000
  10.000   1.3504   0.02090   0.01492  -0.0760   0.0150   1.0000
  11.000   1.4197   0.02398   0.01822  -0.0693   0.0132   1.0000
  12.000   1.4571   0.02860   0.02331  -0.0577   0.0121   1.0000
  13.000   1.4863   0.03340   0.02856  -0.0469   0.0112   1.0000
  14.000   1.5004   0.03963   0.03517  -0.0374   0.0104   1.0000
  15.000   1.4582   0.05404   0.05023  -0.0320   0.0099   1.0000
