  
       XFOIL         Version 6.99
  
 Calculated polar for: NACA 0015                                       
  
 1 1 Reynolds number fixed          Mach number fixed         
  
 xtrf =   1.000 (top)        1.000 (bottom)  
 Mach =   0.000     Re =     0.814 e 6     Ncrit =   9.000
  
   alpha    CL        CD       CDp       CM     Top_Xtr  Bot_Xtr
  ------ -------- --------- --------- -------- -------- --------
 -10.000  -1.1001   0.01525   0.00901  -0.0018   1.0000   0.0552
  -9.000  -1.0397   0.01388   0.00767   0.0074   1.0000   0.0668
  -8.000  -0.9226   0.01250   0.00637   0.0051   0.9949   0.0880
  -7.000  -0.7875   0.01105   0.00516  -0.0008   0.9857   0.1265
  -6.000  -0.6510   0.00972   0.00414  -0.0067   0.9745   0.1843
  -5.000  -0.5330   0.00861   0.00331  -0.0080   0.9504   0.2531
  -4.000  -0.4289   0.00778   0.00269  -0.0059   0.9089   0.3256
  -3.000  -0.3231   0.00719   0.00222  -0.0041   0.8546   0.4010
  -2.000  -0.2160   0.00681   0.00189  -0.0026   0.7878   0.4780
  -1.000  -0.1082   0.00661   0.00170  -0.0013   0.7124   0.5557
   0.000   0.0000   0.00655   0.00164  -0.0000   0.6340   0.6341
   1.000   0.1082   0.00661   0.00170   0.0012   0.5556   0.7125
   2.000   0.2160   0.00681   0.00189   0.0026   0.4779   0.7877
   3.000   0.3231   0.00719   0.00222   0.0041   0.4009   0.8547
   4.000   0.4290   0.00778   0.00269   0.0059   0.3256   0.9089
   5.000   0.5331   0.00861   0.00331   0.0080   0.2532   0.9504
   6.000   0.6511   0.00972   0.00414   0.0067   0.1842   0.9745
   7.000   0.7876   0.01105   0.00516   0.0008   0.1265   0.9857
   8.000   0.9228   0.01249   0.00637  -0.0051   0.0880   0.9949
   9.000   1.0395   0.01387   0.00767  -0.0073   0.0668   1.0000
  10.000   1.1001   0.01524   0.00901   0.0019   0.0552   1.0000
