  
       XFOIL         Version 6.99
  
 Calculated polar for: NACA 2710                                       
  
 1 1 Reynolds number fixed          Mach number fixed         
  
 xtrf =   1.000 (top)        1.000 (bottom)  
 Mach =   0.000     Re =     0.813 e 6     Ncrit =   9.000
  
   alpha    CL        CD       CDp       CM     Top_Xtr  Bot_Xtr
  ------ -------- --------- --------- -------- -------- --------
  -5.000  -0.2670   0.00964   0.00400  -0.0813   0.9728   0.0721
  -4.000  -0.1342   0.00842   0.00314  -0.0862   0.9645   0.1629
  -3.000   0.0018   0.00724   0.00247  -0.0918   0.9589   0.3069
  -2.000   0.1192   0.00639   0.00206  -0.0928   0.9464   0.4455
  -1.000   0.2340   0.00572   0.00175  -0.0929   0.9305   0.5704
   0.000   0.3447   0.00528   0.00160  -0.0918   0.9047   0.6720
   1.000   0.4553   0.00508   0.00148  -0.0905   0.8539   0.7401
   2.000   0.5500   0.00594   0.00164  -0.0859   0.6355   0.7972
   3.000   0.6414   0.00689   0.00219  -0.0813   0.4482   0.9006
   4.000   0.7422   0.00834   0.00288  -0.0794   0.2553   1.0000
   5.000   0.8408   0.01014   0.00393  -0.0774   0.1043   1.0000
   6.000   0.9409   0.01171   0.00519  -0.0754   0.0473   1.0000
   7.000   1.0399   0.01329   0.00675  -0.0731   0.0305   1.0000
   8.000   1.1356   0.01504   0.00857  -0.0704   0.0230   1.0000
   9.000   1.2242   0.01728   0.01098  -0.0665   0.0186   1.0000
  10.000   1.3037   0.02005   0.01396  -0.0615   0.0157   1.0000
  11.000   1.3769   0.02282   0.01696  -0.0557   0.0138   1.0000
  12.000   1.3189   0.01583   0.01073  -0.0320   0.0127   1.0000
  13.000   1.3316   0.02153   0.01689  -0.0219   0.0119   1.0000
  14.000   1.3212   0.03096   0.02679  -0.0141   0.0111   1.0000
  15.000   1.2778   0.04815   0.04449  -0.0118   0.0107   1.0000
